pandapower/test/converter/testfiles/test_ucte_RS.uct
##C 2007.05.01
UCTE Export
test_ucte-Berechnungsfall

----- NODE BLOCK -----
_________1_________2_________3_________4_________5_________6_________7_________8_________9________10________11________12________13
1234567890123456789012345678901234567890123456789012345678901234567890123456789012345678901234567890123456789012345678901234567890
Node    |Node Name   |S|T|Volt  |PLoad  |QLoad  |PGen   |QGen   |Pmin   |Pmax   |Qmin   |Qmax   |Sta  |Pprim  |Sks__  |X/R    |T|

##N
##ZRS
JBUS1_1S Bus1_RS      0 3 383.80       0       0 -200.70 -63.268 9.99900 -9.9990 1.82725 -1.8273
JBUS2_1S Bus2_RS      0 0              0       0       0       0
JBUS3_5S Bus3_RS      0 0        200.000 50.0000       0       0
##C

----- LINE BLOCK -----
_________1_________2_________3_________4_________5_________6_________7
1234567890123456789012345678901234567890123456789012345678901234567890
Node 1  |Node 2  |O|S|R(Ohm)|X(Ohm)|B(uS)   |I(A)  |Element Name|

##L
JBUS1_1S JBUS2_1S 1 0 0.7198 3.0866 42.16017    768 line1_RS
##C

----- 2 WINDING TRANSFORMER BLOCK -----
_________1_________2_________3_________4_________5_________6_________7_________8_________9
123456789012345678901234567890123456789012345678901234567890123456789012345678901234567890
Node 1  |Node 2  |O|S|U1   |U2   |Sn   |R(Ohm)|X(Ohm)|B(uS)   |G(uS) |I(A)  |Element Name|

##T
JBUS3_5S JBUS2_1S 1 0 110.0 380.0 320.0 0.0945 4.6122 -12.3868 9.9174   1680 trafo1_RS
JBUS3_5S JBUS2_1S 2 8 110.0 380.0 160.0 0.1891 9.2243 -6.19339 4.9587    840 trafo2_RS
JBUS3_5S JBUS2_1S 3 8 110.0 380.0 160.0 0.1891 9.2243 -6.19339 4.9587    840 trafo3_RS
##C

----- 2 WINDINGS TRANSFORMERS REGULATION BLOCK -----
_________1_________2_________3_________4_________5_________6_________7
1234567890123456789012345678901234567890123456789012345678901234567890
Node 1  |Node 2  |O|du   |mx|Tap|U    |du   |phitr|mx|Tap|P    |Type|

##R
JBUS3_5S JBUS2_1S 1 1.500  9   3
JBUS3_5S JBUS2_1S 2 1.500  9   3
JBUS3_5S JBUS2_1S 3 1.500  9   0
##C

----- 2 WINDINGS TRANSFORMERS DEPENDING ON THE TAP POSITION BLOCK -----
_________1_________2_________3_________4_________5_________6
123456789012345678901234567890123456789012345678901234567890
Node 1  |Node 2  |O| |Tap|R(Ohm)|X(Ohm)|du   |phi  |

##TT
